%nproc=2
%chk=cdcl2.chk
# opt freq b3lyp/6-31g* geom=connectivity

Title Card Required

0 2
 C                 -4.24444441    1.66666664    0.00000000
 H(iso=2)          -3.88777157    2.17106483    0.87365150
 Cl                -6.00444441    1.66668833    0.00000000
 Cl                -3.65779788    0.00731561    0.00000000

 1 2 1.0 3 1.0 4 1.0
 2
 3
 4

