%nproc=4
%chk=ch2cl2.chk
# b3lyp/6-31g* freq opt  geom=connectivity

Title Card Required

0 1
 C                  1.84334556   -0.30230109    0.00000000
 H                  2.20001840    0.20209710   -0.87365150
 H(iso=2)           0.77334556   -0.30228791    0.00000000
 Cl                 2.43002238    0.52736322    1.43703425
 Cl                 2.42999209   -1.96165212    0.00000000

 1 2 1.0 3 1.0 4 1.0 5 1.0
 2
 3
 4
 5

