%nproc=1
%chk=chcl2.chk
# opt freq b3lyp/6-31g* geom=connectivity

Title Card Required

0 2
 C                 -2.73333331   -1.93333330    0.00000000
 H                 -2.37666047   -1.42893511   -0.87365150
 Cl                -2.14665649   -1.10366899    1.43703425
 Cl                -4.49333331   -1.93331162    0.00000000

 1 2 1.0 3 1.0 4 1.0
 2
 3
 4

