%nprocshared=4
%chk=rx.chk
# opt freq b3lyp/6-31g(d) geom=connectivity

reaction

0 2
 C                 -3.80166168   -0.63507048   -0.16695571
 H                 -3.68926552   -0.03209115   -1.04370141
 Cl                -0.61718333   -1.71819796    0.93646284
 H                 -2.35785201   -1.12614998    0.33332376
 Cl                -4.80011852   -2.03511900   -0.54185312
 Cl                -4.57132377    0.31166620    1.10147243

 1 2 1.0 4 0.5 5 1.0 6 1.0
 2
 3 4 0.5
 4
 5
 6

